15
Properties=species:S:1:pos:R:3 pbc="F F F"
O        0.69962400       1.97956300       0.26207400
C        2.55832100       1.26142900       0.08738400
C        1.95871800      -0.04059100      -0.07916300
C       -0.03156300       0.13703300       0.00510200
C       -0.59505400       0.59454200      -1.26092700
H        0.61471200       2.97244100       0.22115900
H        2.84386600       1.82618100      -0.75688300
H        2.90520300       1.56871600       1.03244200
H        2.07743800      -0.69522100       0.71496200
H        2.01772900      -0.45331700      -1.01405900
H       -0.01609400      -0.92123300       0.05998800
H       -0.38675000       0.49898100       0.90382900
H       -1.20345300       1.52524600      -1.11317000
H       -1.26386400      -0.18090900      -1.69801100
H        0.17022100       0.82270400      -1.97503500
