10
Properties=species:S:1:pos:R:3 pbc="F F F"
O       -0.66789767       0.96078545       0.72680467
C       -0.04577020       2.12475232       0.94219452
C       -0.54029965      -0.88111293       0.06333620
O        0.56483997       2.50550524       1.93005504
C        0.59262020      -1.28408261      -0.72943409
H       -1.42453239      -1.24196419      -0.49043967
H       -0.60600453      -1.55098415       0.92909304
H        0.60885922      -1.37005680      -1.82324103
H        1.55273218      -1.54941649      -0.28070170
Li      -0.03454714       2.28657416      -1.26766698
